
  ACD/LABS11232318563D

 10  9  0  0  0  0  0  0  0  0  1 V2000
   14.1973   -5.4274   -2.4041 C   0  0  0  0  0  0  0  0  0  0  0  0
   13.0332   -5.1079   -2.3223 O   0  0  0  0  0  0  0  0  0  0  0  0
   14.0629   -5.8999   -0.0030 N   0  0  0  0  0  0  0  0  0  0  0  0
   14.9142   -5.9785   -1.1984 C   0  0  0  0  0  0  0  0  0  0  0  0
   14.8641   -5.2730   -3.5789 O   0  0  0  0  0  0  0  0  0  0  0  0
   13.2721   -6.4939   -0.2096 H   0  0  0  0  0  0  0  0  0  0  0  0
   14.5747   -6.3934    0.7145 H   0  0  0  0  0  0  0  0  0  0  0  0
   15.1672   -7.0453   -1.3922 H   0  0  0  0  0  0  0  0  0  0  0  0
   15.8505   -5.4020   -1.0265 H   0  0  0  0  0  0  0  0  0  0  0  0
   15.7909   -5.5152   -3.6385 H   0  0  0  0  0  0  0  0  0  0  0  0
  1  2  2  0  0  0  0
  1  4  1  0  0  0  0
  3  4  1  0  0  0  0
  5  1  1  0  0  0  0
  6  3  1  0  0  0  0
  7  3  1  0  0  0  0
  8  4  1  0  0  0  0
  9  4  1  0  0  0  0
 10  5  1  0  0  0  0
M  END
